LTspice 24.1.9 for Windows
Circuit: C:\Users\stanm\Desktop\TSP-PPUF\NetListGen\SpiceComponents\Inv\Inv.net
Start Time: Thu Jun 26 10:58:27 2025
solver = Normal
Maximum thread count: 16
tnom = 27
temp = 27
method = trap
.step 
Total elapsed time: 0.215 seconds.

Files loaded:
C:\Users\stanm\Desktop\TSP-PPUF\NetListGen\SpiceComponents\Inv\Inv.net
C:\Users\stanm\AppData\Local\LTspice\lib\cmp\standard.mos
C:\Users\stanm\Desktop\TSP-PPUF\NetListGen\SpiceComponents\bsim.txt

